/*--------------------------------*- C++ -*----------------------------------*\
| =========                 |                                                 |
| \\      /  F ield         | OpenFOAM: The Open Source CFD Toolbox           |
|  \\    /   O peration     | Version:  v2006                                 |
|   \\  /    A nd           | Website:  www.openfoam.com                      |
|    \\/     M anipulation  |                                                 |
\*---------------------------------------------------------------------------*/
FoamFile
{
    version     2.0;
    format      ascii;
    class       volScalarField;
    object      T;
}
// * * * * * * * * * * * * * * * * * * * * * * * * * * * * * * * * * * * * * //

dimensions      [0 0 0 1 0 0 0];

internalField   uniform 70;

boundaryField
{
    inlet
    {
        type            fixedValue;
        value           uniform 70;
    }
    outlet
    {
        type            zeroGradient;
    }
    walls
    {
        type            mixed;
        refValue        uniform 298.15;
        refGradient     uniform 0;
        
        // k laminar
        // valueFraction   uniform 0.137;

        // Aproximación utilizando conductividad
        // térmica turbulenta igual a 0.9 W/mK
        valueFraction   uniform 0.0239;
    }
}

// ************************************************************************* //
