/*--------------------------------*- C++ -*----------------------------------*\
| =========                 |                                                 |
| \\      /  F ield         | OpenFOAM: The Open Source CFD Toolbox           |
|  \\    /   O peration     | Version:  v2006                                 |
|   \\  /    A nd           | Website:  www.openfoam.com                      |
|    \\/     M anipulation  |                                                 |
\*---------------------------------------------------------------------------*/
FoamFile
{
    version     2.0;
    format      ascii;
    class       dictionary;
    object      transportProperties;
}

// * * * * * * * * * * * * * * * * * * * * * * * * * * * * * * * * * * * * * //

transportModel Newtonian;

// Viscosidad cinemática
nu              2.62e-7; // m^2 / s

// Coeficiente de expansión térmica
beta            0;

// Temperatura de referencia
TRef            70;

// Número de Prandtl laminar
Pr              2.783;

// Número de Prandtl turbulento
Prt             0.85;

// Parámetros adicionales

// Conductividad térmica / W/m/K
k               0.160;

// Coeficiente de convección / W / m^2 / K 
h               25;   

// Temperatura de los alrededores / K
T_inf           298.15;

// Densidad de líquido / kg / m^3
// rho = 838; 

// Çalor específico por unidad de masa/ J / kg / K
// cp = 2014;
// ************************************************************************* //